*SPEF "ieee 1481-1999"
*DESIGN "tt_um_chip_rom"
*DATE "11:11:11 Fri 11 11, 1111"
*VENDOR "OpenRCX"
*PROGRAM "Parallel Extraction"
*VERSION "1.0"
*DESIGN_FLOW "NAME_SCOPE LOCAL" "PIN_CAP NONE"
*DIVIDER /
*DELIMITER :
*BUS_DELIMITER []
*T_UNIT 1 NS
*C_UNIT 1 PF
*R_UNIT 1 OHM
*L_UNIT 1 HENRY

*NAME_MAP
*3 clk
*4 ena
*5 rst_n
*6 ui_in[0]
*7 ui_in[1]
*8 ui_in[2]
*9 ui_in[3]
*10 ui_in[4]
*11 ui_in[5]
*12 ui_in[6]
*13 ui_in[7]
*14 uio_in[0]
*15 uio_in[1]
*16 uio_in[2]
*17 uio_in[3]
*18 uio_in[4]
*19 uio_in[5]
*20 uio_in[6]
*21 uio_in[7]
*22 net9
*23 net10
*24 net11
*25 net12
*26 net13
*27 net14
*28 net15
*29 net16
*30 net17
*31 net18
*32 net19
*33 net20
*34 net21
*35 net22
*36 net23
*37 net24
*38 uo_out[0]
*39 uo_out[1]
*40 uo_out[2]
*41 uo_out[3]
*42 uo_out[4]
*43 uo_out[5]
*44 uo_out[6]
*45 net25
*46 _000_
*47 _001_
*48 _002_
*49 _003_
*50 _004_
*51 _005_
*52 _006_
*53 _007_
*54 _008_
*55 _009_
*56 _010_
*57 _011_
*58 _012_
*59 _013_
*60 _014_
*61 _015_
*62 _016_
*63 _017_
*64 _018_
*65 _019_
*66 _020_
*67 _021_
*68 _022_
*69 _023_
*70 _024_
*71 _025_
*72 _026_
*73 _027_
*74 _028_
*75 _029_
*76 _030_
*77 _031_
*78 _032_
*79 _033_
*80 _034_
*81 _035_
*82 _036_
*83 _037_
*84 _038_
*85 _039_
*86 _040_
*87 _041_
*88 _042_
*89 _043_
*90 _044_
*91 _045_
*92 _046_
*93 _047_
*94 _048_
*95 _049_
*96 _050_
*97 _051_
*98 _052_
*99 _053_
*100 _054_
*101 _055_
*102 _056_
*103 _057_
*104 _058_
*105 _059_
*106 _060_
*107 _061_
*108 _062_
*109 _063_
*110 _064_
*111 _065_
*112 _066_
*113 _067_
*114 _068_
*115 _069_
*116 _070_
*117 _071_
*118 _072_
*119 _073_
*120 _074_
*121 _075_
*122 _076_
*123 _077_
*124 _078_
*125 _079_
*126 _080_
*127 _081_
*128 _082_
*129 _083_
*130 _084_
*131 _085_
*132 _086_
*133 _087_
*134 _088_
*135 _089_
*136 net1
*137 net2
*138 net3
*139 net4
*140 net5
*141 net6
*142 net7
*143 net8
*144 FILLER_0_0_109
*145 FILLER_0_0_113
*146 FILLER_0_0_125
*147 FILLER_0_0_137
*148 FILLER_0_0_141
*149 FILLER_0_0_15
*150 FILLER_0_0_153
*151 FILLER_0_0_165
*152 FILLER_0_0_169
*153 FILLER_0_0_181
*154 FILLER_0_0_193
*155 FILLER_0_0_197
*156 FILLER_0_0_209
*157 FILLER_0_0_221
*158 FILLER_0_0_225
*159 FILLER_0_0_237
*160 FILLER_0_0_249
*161 FILLER_0_0_253
*162 FILLER_0_0_265
*163 FILLER_0_0_27
*164 FILLER_0_0_277
*165 FILLER_0_0_281
*166 FILLER_0_0_29
*167 FILLER_0_0_293
*168 FILLER_0_0_3
*169 FILLER_0_0_305
*170 FILLER_0_0_309
*171 FILLER_0_0_321
*172 FILLER_0_0_333
*173 FILLER_0_0_337
*174 FILLER_0_0_349
*175 FILLER_0_0_41
*176 FILLER_0_0_53
*177 FILLER_0_0_57
*178 FILLER_0_0_69
*179 FILLER_0_0_81
*180 FILLER_0_0_85
*181 FILLER_0_0_97
*182 FILLER_0_10_109
*183 FILLER_0_10_121
*184 FILLER_0_10_133
*185 FILLER_0_10_139
*186 FILLER_0_10_141
*187 FILLER_0_10_15
*188 FILLER_0_10_153
*189 FILLER_0_10_165
*190 FILLER_0_10_177
*191 FILLER_0_10_189
*192 FILLER_0_10_195
*193 FILLER_0_10_197
*194 FILLER_0_10_209
*195 FILLER_0_10_221
*196 FILLER_0_10_233
*197 FILLER_0_10_245
*198 FILLER_0_10_251
*199 FILLER_0_10_253
*200 FILLER_0_10_265
*201 FILLER_0_10_27
*202 FILLER_0_10_277
*203 FILLER_0_10_289
*204 FILLER_0_10_29
*205 FILLER_0_10_3
*206 FILLER_0_10_301
*207 FILLER_0_10_307
*208 FILLER_0_10_309
*209 FILLER_0_10_321
*210 FILLER_0_10_333
*211 FILLER_0_10_345
*212 FILLER_0_10_41
*213 FILLER_0_10_53
*214 FILLER_0_10_65
*215 FILLER_0_10_77
*216 FILLER_0_10_83
*217 FILLER_0_10_85
*218 FILLER_0_10_97
*219 FILLER_0_11_105
*220 FILLER_0_11_111
*221 FILLER_0_11_113
*222 FILLER_0_11_125
*223 FILLER_0_11_137
*224 FILLER_0_11_149
*225 FILLER_0_11_15
*226 FILLER_0_11_161
*227 FILLER_0_11_167
*228 FILLER_0_11_169
*229 FILLER_0_11_181
*230 FILLER_0_11_193
*231 FILLER_0_11_205
*232 FILLER_0_11_217
*233 FILLER_0_11_223
*234 FILLER_0_11_225
*235 FILLER_0_11_237
*236 FILLER_0_11_249
*237 FILLER_0_11_261
*238 FILLER_0_11_27
*239 FILLER_0_11_273
*240 FILLER_0_11_279
*241 FILLER_0_11_281
*242 FILLER_0_11_293
*243 FILLER_0_11_3
*244 FILLER_0_11_305
*245 FILLER_0_11_317
*246 FILLER_0_11_329
*247 FILLER_0_11_335
*248 FILLER_0_11_337
*249 FILLER_0_11_349
*250 FILLER_0_11_39
*251 FILLER_0_11_51
*252 FILLER_0_11_55
*253 FILLER_0_11_57
*254 FILLER_0_11_69
*255 FILLER_0_11_81
*256 FILLER_0_11_93
*257 FILLER_0_12_109
*258 FILLER_0_12_121
*259 FILLER_0_12_133
*260 FILLER_0_12_139
*261 FILLER_0_12_141
*262 FILLER_0_12_15
*263 FILLER_0_12_153
*264 FILLER_0_12_165
*265 FILLER_0_12_177
*266 FILLER_0_12_189
*267 FILLER_0_12_195
*268 FILLER_0_12_197
*269 FILLER_0_12_209
*270 FILLER_0_12_221
*271 FILLER_0_12_233
*272 FILLER_0_12_245
*273 FILLER_0_12_251
*274 FILLER_0_12_253
*275 FILLER_0_12_265
*276 FILLER_0_12_27
*277 FILLER_0_12_277
*278 FILLER_0_12_289
*279 FILLER_0_12_29
*280 FILLER_0_12_3
*281 FILLER_0_12_301
*282 FILLER_0_12_307
*283 FILLER_0_12_309
*284 FILLER_0_12_321
*285 FILLER_0_12_333
*286 FILLER_0_12_345
*287 FILLER_0_12_41
*288 FILLER_0_12_53
*289 FILLER_0_12_65
*290 FILLER_0_12_77
*291 FILLER_0_12_83
*292 FILLER_0_12_85
*293 FILLER_0_12_97
*294 FILLER_0_13_105
*295 FILLER_0_13_111
*296 FILLER_0_13_113
*297 FILLER_0_13_125
*298 FILLER_0_13_137
*299 FILLER_0_13_149
*300 FILLER_0_13_15
*301 FILLER_0_13_161
*302 FILLER_0_13_167
*303 FILLER_0_13_169
*304 FILLER_0_13_181
*305 FILLER_0_13_193
*306 FILLER_0_13_205
*307 FILLER_0_13_217
*308 FILLER_0_13_223
*309 FILLER_0_13_225
*310 FILLER_0_13_237
*311 FILLER_0_13_249
*312 FILLER_0_13_261
*313 FILLER_0_13_27
*314 FILLER_0_13_273
*315 FILLER_0_13_279
*316 FILLER_0_13_281
*317 FILLER_0_13_293
*318 FILLER_0_13_3
*319 FILLER_0_13_305
*320 FILLER_0_13_317
*321 FILLER_0_13_329
*322 FILLER_0_13_335
*323 FILLER_0_13_337
*324 FILLER_0_13_349
*325 FILLER_0_13_39
*326 FILLER_0_13_51
*327 FILLER_0_13_55
*328 FILLER_0_13_57
*329 FILLER_0_13_69
*330 FILLER_0_13_81
*331 FILLER_0_13_93
*332 FILLER_0_14_109
*333 FILLER_0_14_121
*334 FILLER_0_14_133
*335 FILLER_0_14_139
*336 FILLER_0_14_141
*337 FILLER_0_14_15
*338 FILLER_0_14_153
*339 FILLER_0_14_165
*340 FILLER_0_14_177
*341 FILLER_0_14_189
*342 FILLER_0_14_195
*343 FILLER_0_14_197
*344 FILLER_0_14_209
*345 FILLER_0_14_221
*346 FILLER_0_14_233
*347 FILLER_0_14_245
*348 FILLER_0_14_251
*349 FILLER_0_14_253
*350 FILLER_0_14_265
*351 FILLER_0_14_27
*352 FILLER_0_14_277
*353 FILLER_0_14_289
*354 FILLER_0_14_29
*355 FILLER_0_14_3
*356 FILLER_0_14_301
*357 FILLER_0_14_307
*358 FILLER_0_14_309
*359 FILLER_0_14_321
*360 FILLER_0_14_333
*361 FILLER_0_14_345
*362 FILLER_0_14_41
*363 FILLER_0_14_53
*364 FILLER_0_14_65
*365 FILLER_0_14_77
*366 FILLER_0_14_83
*367 FILLER_0_14_85
*368 FILLER_0_14_97
*369 FILLER_0_15_105
*370 FILLER_0_15_111
*371 FILLER_0_15_113
*372 FILLER_0_15_125
*373 FILLER_0_15_137
*374 FILLER_0_15_149
*375 FILLER_0_15_15
*376 FILLER_0_15_161
*377 FILLER_0_15_167
*378 FILLER_0_15_169
*379 FILLER_0_15_181
*380 FILLER_0_15_193
*381 FILLER_0_15_205
*382 FILLER_0_15_217
*383 FILLER_0_15_223
*384 FILLER_0_15_225
*385 FILLER_0_15_237
*386 FILLER_0_15_249
*387 FILLER_0_15_261
*388 FILLER_0_15_27
*389 FILLER_0_15_273
*390 FILLER_0_15_279
*391 FILLER_0_15_281
*392 FILLER_0_15_293
*393 FILLER_0_15_3
*394 FILLER_0_15_305
*395 FILLER_0_15_317
*396 FILLER_0_15_329
*397 FILLER_0_15_335
*398 FILLER_0_15_337
*399 FILLER_0_15_349
*400 FILLER_0_15_39
*401 FILLER_0_15_51
*402 FILLER_0_15_55
*403 FILLER_0_15_57
*404 FILLER_0_15_69
*405 FILLER_0_15_81
*406 FILLER_0_15_93
*407 FILLER_0_16_109
*408 FILLER_0_16_121
*409 FILLER_0_16_133
*410 FILLER_0_16_139
*411 FILLER_0_16_141
*412 FILLER_0_16_15
*413 FILLER_0_16_153
*414 FILLER_0_16_165
*415 FILLER_0_16_177
*416 FILLER_0_16_189
*417 FILLER_0_16_195
*418 FILLER_0_16_197
*419 FILLER_0_16_209
*420 FILLER_0_16_221
*421 FILLER_0_16_233
*422 FILLER_0_16_245
*423 FILLER_0_16_251
*424 FILLER_0_16_253
*425 FILLER_0_16_265
*426 FILLER_0_16_27
*427 FILLER_0_16_277
*428 FILLER_0_16_289
*429 FILLER_0_16_29
*430 FILLER_0_16_3
*431 FILLER_0_16_301
*432 FILLER_0_16_307
*433 FILLER_0_16_309
*434 FILLER_0_16_321
*435 FILLER_0_16_333
*436 FILLER_0_16_345
*437 FILLER_0_16_41
*438 FILLER_0_16_53
*439 FILLER_0_16_65
*440 FILLER_0_16_77
*441 FILLER_0_16_83
*442 FILLER_0_16_85
*443 FILLER_0_16_97
*444 FILLER_0_17_105
*445 FILLER_0_17_111
*446 FILLER_0_17_113
*447 FILLER_0_17_125
*448 FILLER_0_17_137
*449 FILLER_0_17_149
*450 FILLER_0_17_15
*451 FILLER_0_17_161
*452 FILLER_0_17_167
*453 FILLER_0_17_169
*454 FILLER_0_17_181
*455 FILLER_0_17_193
*456 FILLER_0_17_205
*457 FILLER_0_17_217
*458 FILLER_0_17_223
*459 FILLER_0_17_225
*460 FILLER_0_17_237
*461 FILLER_0_17_249
*462 FILLER_0_17_261
*463 FILLER_0_17_27
*464 FILLER_0_17_273
*465 FILLER_0_17_279
*466 FILLER_0_17_281
*467 FILLER_0_17_293
*468 FILLER_0_17_3
*469 FILLER_0_17_305
*470 FILLER_0_17_317
*471 FILLER_0_17_329
*472 FILLER_0_17_335
*473 FILLER_0_17_337
*474 FILLER_0_17_349
*475 FILLER_0_17_39
*476 FILLER_0_17_51
*477 FILLER_0_17_55
*478 FILLER_0_17_57
*479 FILLER_0_17_69
*480 FILLER_0_17_81
*481 FILLER_0_17_93
*482 FILLER_0_18_109
*483 FILLER_0_18_121
*484 FILLER_0_18_133
*485 FILLER_0_18_139
*486 FILLER_0_18_141
*487 FILLER_0_18_15
*488 FILLER_0_18_153
*489 FILLER_0_18_165
*490 FILLER_0_18_177
*491 FILLER_0_18_189
*492 FILLER_0_18_195
*493 FILLER_0_18_197
*494 FILLER_0_18_209
*495 FILLER_0_18_221
*496 FILLER_0_18_233
*497 FILLER_0_18_245
*498 FILLER_0_18_251
*499 FILLER_0_18_253
*500 FILLER_0_18_265
*501 FILLER_0_18_27
*502 FILLER_0_18_277
*503 FILLER_0_18_289
*504 FILLER_0_18_29
*505 FILLER_0_18_3
*506 FILLER_0_18_301
*507 FILLER_0_18_307
*508 FILLER_0_18_309
*509 FILLER_0_18_321
*510 FILLER_0_18_333
*511 FILLER_0_18_345
*512 FILLER_0_18_41
*513 FILLER_0_18_53
*514 FILLER_0_18_65
*515 FILLER_0_18_77
*516 FILLER_0_18_83
*517 FILLER_0_18_85
*518 FILLER_0_18_97
*519 FILLER_0_19_105
*520 FILLER_0_19_111
*521 FILLER_0_19_113
*522 FILLER_0_19_125
*523 FILLER_0_19_137
*524 FILLER_0_19_149
*525 FILLER_0_19_15
*526 FILLER_0_19_161
*527 FILLER_0_19_167
*528 FILLER_0_19_169
*529 FILLER_0_19_181
*530 FILLER_0_19_193
*531 FILLER_0_19_205
*532 FILLER_0_19_217
*533 FILLER_0_19_223
*534 FILLER_0_19_225
*535 FILLER_0_19_237
*536 FILLER_0_19_249
*537 FILLER_0_19_261
*538 FILLER_0_19_27
*539 FILLER_0_19_273
*540 FILLER_0_19_279
*541 FILLER_0_19_281
*542 FILLER_0_19_293
*543 FILLER_0_19_3
*544 FILLER_0_19_305
*545 FILLER_0_19_317
*546 FILLER_0_19_329
*547 FILLER_0_19_335
*548 FILLER_0_19_337
*549 FILLER_0_19_349
*550 FILLER_0_19_39
*551 FILLER_0_19_51
*552 FILLER_0_19_55
*553 FILLER_0_19_57
*554 FILLER_0_19_69
*555 FILLER_0_19_81
*556 FILLER_0_19_93
*557 FILLER_0_1_105
*558 FILLER_0_1_111
*559 FILLER_0_1_113
*560 FILLER_0_1_125
*561 FILLER_0_1_137
*562 FILLER_0_1_149
*563 FILLER_0_1_15
*564 FILLER_0_1_161
*565 FILLER_0_1_167
*566 FILLER_0_1_169
*567 FILLER_0_1_181
*568 FILLER_0_1_193
*569 FILLER_0_1_205
*570 FILLER_0_1_217
*571 FILLER_0_1_223
*572 FILLER_0_1_225
*573 FILLER_0_1_237
*574 FILLER_0_1_249
*575 FILLER_0_1_261
*576 FILLER_0_1_27
*577 FILLER_0_1_273
*578 FILLER_0_1_279
*579 FILLER_0_1_281
*580 FILLER_0_1_293
*581 FILLER_0_1_3
*582 FILLER_0_1_305
*583 FILLER_0_1_317
*584 FILLER_0_1_329
*585 FILLER_0_1_335
*586 FILLER_0_1_337
*587 FILLER_0_1_349
*588 FILLER_0_1_39
*589 FILLER_0_1_51
*590 FILLER_0_1_55
*591 FILLER_0_1_57
*592 FILLER_0_1_69
*593 FILLER_0_1_81
*594 FILLER_0_1_93
*595 FILLER_0_20_109
*596 FILLER_0_20_121
*597 FILLER_0_20_133
*598 FILLER_0_20_139
*599 FILLER_0_20_141
*600 FILLER_0_20_15
*601 FILLER_0_20_153
*602 FILLER_0_20_165
*603 FILLER_0_20_177
*604 FILLER_0_20_189
*605 FILLER_0_20_195
*606 FILLER_0_20_197
*607 FILLER_0_20_209
*608 FILLER_0_20_221
*609 FILLER_0_20_233
*610 FILLER_0_20_245
*611 FILLER_0_20_251
*612 FILLER_0_20_253
*613 FILLER_0_20_265
*614 FILLER_0_20_27
*615 FILLER_0_20_277
*616 FILLER_0_20_289
*617 FILLER_0_20_29
*618 FILLER_0_20_3
*619 FILLER_0_20_301
*620 FILLER_0_20_307
*621 FILLER_0_20_309
*622 FILLER_0_20_321
*623 FILLER_0_20_333
*624 FILLER_0_20_345
*625 FILLER_0_20_41
*626 FILLER_0_20_53
*627 FILLER_0_20_65
*628 FILLER_0_20_77
*629 FILLER_0_20_83
*630 FILLER_0_20_85
*631 FILLER_0_20_97
*632 FILLER_0_21_105
*633 FILLER_0_21_111
*634 FILLER_0_21_113
*635 FILLER_0_21_125
*636 FILLER_0_21_137
*637 FILLER_0_21_149
*638 FILLER_0_21_15
*639 FILLER_0_21_161
*640 FILLER_0_21_167
*641 FILLER_0_21_169
*642 FILLER_0_21_181
*643 FILLER_0_21_193
*644 FILLER_0_21_205
*645 FILLER_0_21_217
*646 FILLER_0_21_223
*647 FILLER_0_21_225
*648 FILLER_0_21_237
*649 FILLER_0_21_249
*650 FILLER_0_21_261
*651 FILLER_0_21_27
*652 FILLER_0_21_273
*653 FILLER_0_21_279
*654 FILLER_0_21_281
*655 FILLER_0_21_293
*656 FILLER_0_21_3
*657 FILLER_0_21_305
*658 FILLER_0_21_317
*659 FILLER_0_21_329
*660 FILLER_0_21_335
*661 FILLER_0_21_337
*662 FILLER_0_21_349
*663 FILLER_0_21_39
*664 FILLER_0_21_51
*665 FILLER_0_21_55
*666 FILLER_0_21_57
*667 FILLER_0_21_69
*668 FILLER_0_21_81
*669 FILLER_0_21_93
*670 FILLER_0_22_109
*671 FILLER_0_22_121
*672 FILLER_0_22_133
*673 FILLER_0_22_139
*674 FILLER_0_22_141
*675 FILLER_0_22_15
*676 FILLER_0_22_153
*677 FILLER_0_22_165
*678 FILLER_0_22_177
*679 FILLER_0_22_189
*680 FILLER_0_22_195
*681 FILLER_0_22_197
*682 FILLER_0_22_209
*683 FILLER_0_22_221
*684 FILLER_0_22_233
*685 FILLER_0_22_245
*686 FILLER_0_22_251
*687 FILLER_0_22_253
*688 FILLER_0_22_265
*689 FILLER_0_22_27
*690 FILLER_0_22_277
*691 FILLER_0_22_289
*692 FILLER_0_22_29
*693 FILLER_0_22_3
*694 FILLER_0_22_301
*695 FILLER_0_22_307
*696 FILLER_0_22_309
*697 FILLER_0_22_321
*698 FILLER_0_22_333
*699 FILLER_0_22_345
*700 FILLER_0_22_41
*701 FILLER_0_22_53
*702 FILLER_0_22_65
*703 FILLER_0_22_77
*704 FILLER_0_22_83
*705 FILLER_0_22_85
*706 FILLER_0_22_97
*707 FILLER_0_23_105
*708 FILLER_0_23_111
*709 FILLER_0_23_113
*710 FILLER_0_23_125
*711 FILLER_0_23_137
*712 FILLER_0_23_149
*713 FILLER_0_23_15
*714 FILLER_0_23_161
*715 FILLER_0_23_167
*716 FILLER_0_23_169
*717 FILLER_0_23_181
*718 FILLER_0_23_193
*719 FILLER_0_23_205
*720 FILLER_0_23_217
*721 FILLER_0_23_223
*722 FILLER_0_23_225
*723 FILLER_0_23_237
*724 FILLER_0_23_249
*725 FILLER_0_23_261
*726 FILLER_0_23_27
*727 FILLER_0_23_273
*728 FILLER_0_23_279
*729 FILLER_0_23_281
*730 FILLER_0_23_293
*731 FILLER_0_23_3
*732 FILLER_0_23_305
*733 FILLER_0_23_317
*734 FILLER_0_23_329
*735 FILLER_0_23_335
*736 FILLER_0_23_337
*737 FILLER_0_23_349
*738 FILLER_0_23_39
*739 FILLER_0_23_51
*740 FILLER_0_23_55
*741 FILLER_0_23_57
*742 FILLER_0_23_69
*743 FILLER_0_23_81
*744 FILLER_0_23_93
*745 FILLER_0_24_109
*746 FILLER_0_24_121
*747 FILLER_0_24_133
*748 FILLER_0_24_139
*749 FILLER_0_24_141
*750 FILLER_0_24_15
*751 FILLER_0_24_153
*752 FILLER_0_24_165
*753 FILLER_0_24_177
*754 FILLER_0_24_189
*755 FILLER_0_24_195
*756 FILLER_0_24_197
*757 FILLER_0_24_209
*758 FILLER_0_24_221
*759 FILLER_0_24_233
*760 FILLER_0_24_245
*761 FILLER_0_24_251
*762 FILLER_0_24_253
*763 FILLER_0_24_265
*764 FILLER_0_24_27
*765 FILLER_0_24_277
*766 FILLER_0_24_289
*767 FILLER_0_24_29
*768 FILLER_0_24_3
*769 FILLER_0_24_301
*770 FILLER_0_24_307
*771 FILLER_0_24_309
*772 FILLER_0_24_321
*773 FILLER_0_24_333
*774 FILLER_0_24_345
*775 FILLER_0_24_41
*776 FILLER_0_24_53
*777 FILLER_0_24_65
*778 FILLER_0_24_77
*779 FILLER_0_24_83
*780 FILLER_0_24_85
*781 FILLER_0_24_97
*782 FILLER_0_25_105
*783 FILLER_0_25_111
*784 FILLER_0_25_113
*785 FILLER_0_25_125
*786 FILLER_0_25_137
*787 FILLER_0_25_149
*788 FILLER_0_25_15
*789 FILLER_0_25_161
*790 FILLER_0_25_167
*791 FILLER_0_25_169
*792 FILLER_0_25_181
*793 FILLER_0_25_193
*794 FILLER_0_25_205
*795 FILLER_0_25_217
*796 FILLER_0_25_223
*797 FILLER_0_25_225
*798 FILLER_0_25_237
*799 FILLER_0_25_249
*800 FILLER_0_25_261
*801 FILLER_0_25_27
*802 FILLER_0_25_273
*803 FILLER_0_25_279
*804 FILLER_0_25_281
*805 FILLER_0_25_293
*806 FILLER_0_25_3
*807 FILLER_0_25_305
*808 FILLER_0_25_317
*809 FILLER_0_25_329
*810 FILLER_0_25_335
*811 FILLER_0_25_337
*812 FILLER_0_25_349
*813 FILLER_0_25_39
*814 FILLER_0_25_51
*815 FILLER_0_25_55
*816 FILLER_0_25_57
*817 FILLER_0_25_69
*818 FILLER_0_25_81
*819 FILLER_0_25_93
*820 FILLER_0_26_109
*821 FILLER_0_26_121
*822 FILLER_0_26_133
*823 FILLER_0_26_139
*824 FILLER_0_26_141
*825 FILLER_0_26_15
*826 FILLER_0_26_153
*827 FILLER_0_26_165
*828 FILLER_0_26_177
*829 FILLER_0_26_189
*830 FILLER_0_26_195
*831 FILLER_0_26_197
*832 FILLER_0_26_209
*833 FILLER_0_26_221
*834 FILLER_0_26_233
*835 FILLER_0_26_245
*836 FILLER_0_26_251
*837 FILLER_0_26_253
*838 FILLER_0_26_265
*839 FILLER_0_26_27
*840 FILLER_0_26_277
*841 FILLER_0_26_289
*842 FILLER_0_26_29
*843 FILLER_0_26_3
*844 FILLER_0_26_301
*845 FILLER_0_26_307
*846 FILLER_0_26_309
*847 FILLER_0_26_321
*848 FILLER_0_26_333
*849 FILLER_0_26_345
*850 FILLER_0_26_41
*851 FILLER_0_26_53
*852 FILLER_0_26_65
*853 FILLER_0_26_77
*854 FILLER_0_26_83
*855 FILLER_0_26_85
*856 FILLER_0_26_97
*857 FILLER_0_27_105
*858 FILLER_0_27_111
*859 FILLER_0_27_113
*860 FILLER_0_27_125
*861 FILLER_0_27_137
*862 FILLER_0_27_149
*863 FILLER_0_27_15
*864 FILLER_0_27_161
*865 FILLER_0_27_167
*866 FILLER_0_27_169
*867 FILLER_0_27_181
*868 FILLER_0_27_193
*869 FILLER_0_27_205
*870 FILLER_0_27_217
*871 FILLER_0_27_223
*872 FILLER_0_27_225
*873 FILLER_0_27_237
*874 FILLER_0_27_249
*875 FILLER_0_27_261
*876 FILLER_0_27_27
*877 FILLER_0_27_273
*878 FILLER_0_27_279
*879 FILLER_0_27_281
*880 FILLER_0_27_293
*881 FILLER_0_27_3
*882 FILLER_0_27_305
*883 FILLER_0_27_317
*884 FILLER_0_27_329
*885 FILLER_0_27_335
*886 FILLER_0_27_337
*887 FILLER_0_27_349
*888 FILLER_0_27_39
*889 FILLER_0_27_51
*890 FILLER_0_27_55
*891 FILLER_0_27_57
*892 FILLER_0_27_69
*893 FILLER_0_27_81
*894 FILLER_0_27_93
*895 FILLER_0_28_109
*896 FILLER_0_28_121
*897 FILLER_0_28_133
*898 FILLER_0_28_139
*899 FILLER_0_28_141
*900 FILLER_0_28_15
*901 FILLER_0_28_153
*902 FILLER_0_28_165
*903 FILLER_0_28_177
*904 FILLER_0_28_189
*905 FILLER_0_28_195
*906 FILLER_0_28_197
*907 FILLER_0_28_209
*908 FILLER_0_28_221
*909 FILLER_0_28_233
*910 FILLER_0_28_245
*911 FILLER_0_28_251
*912 FILLER_0_28_253
*913 FILLER_0_28_265
*914 FILLER_0_28_27
*915 FILLER_0_28_277
*916 FILLER_0_28_289
*917 FILLER_0_28_29
*918 FILLER_0_28_3
*919 FILLER_0_28_301
*920 FILLER_0_28_307
*921 FILLER_0_28_309
*922 FILLER_0_28_321
*923 FILLER_0_28_333
*924 FILLER_0_28_345
*925 FILLER_0_28_41
*926 FILLER_0_28_53
*927 FILLER_0_28_65
*928 FILLER_0_28_77
*929 FILLER_0_28_83
*930 FILLER_0_28_85
*931 FILLER_0_28_97
*932 FILLER_0_29_105
*933 FILLER_0_29_111
*934 FILLER_0_29_113
*935 FILLER_0_29_125
*936 FILLER_0_29_137
*937 FILLER_0_29_149
*938 FILLER_0_29_15
*939 FILLER_0_29_161
*940 FILLER_0_29_167
*941 FILLER_0_29_169
*942 FILLER_0_29_181
*943 FILLER_0_29_193
*944 FILLER_0_29_205
*945 FILLER_0_29_217
*946 FILLER_0_29_223
*947 FILLER_0_29_225
*948 FILLER_0_29_237
*949 FILLER_0_29_249
*950 FILLER_0_29_261
*951 FILLER_0_29_27
*952 FILLER_0_29_273
*953 FILLER_0_29_279
*954 FILLER_0_29_281
*955 FILLER_0_29_293
*956 FILLER_0_29_3
*957 FILLER_0_29_305
*958 FILLER_0_29_317
*959 FILLER_0_29_329
*960 FILLER_0_29_335
*961 FILLER_0_29_337
*962 FILLER_0_29_349
*963 FILLER_0_29_39
*964 FILLER_0_29_51
*965 FILLER_0_29_55
*966 FILLER_0_29_57
*967 FILLER_0_29_69
*968 FILLER_0_29_81
*969 FILLER_0_29_93
*970 FILLER_0_2_109
*971 FILLER_0_2_121
*972 FILLER_0_2_133
*973 FILLER_0_2_139
*974 FILLER_0_2_141
*975 FILLER_0_2_15
*976 FILLER_0_2_153
*977 FILLER_0_2_165
*978 FILLER_0_2_177
*979 FILLER_0_2_189
*980 FILLER_0_2_195
*981 FILLER_0_2_197
*982 FILLER_0_2_209
*983 FILLER_0_2_221
*984 FILLER_0_2_233
*985 FILLER_0_2_245
*986 FILLER_0_2_251
*987 FILLER_0_2_253
*988 FILLER_0_2_265
*989 FILLER_0_2_27
*990 FILLER_0_2_277
*991 FILLER_0_2_289
*992 FILLER_0_2_29
*993 FILLER_0_2_3
*994 FILLER_0_2_301
*995 FILLER_0_2_307
*996 FILLER_0_2_309
*997 FILLER_0_2_321
*998 FILLER_0_2_333
*999 FILLER_0_2_345
*1000 FILLER_0_2_41
*1001 FILLER_0_2_53
*1002 FILLER_0_2_65
*1003 FILLER_0_2_77
*1004 FILLER_0_2_83
*1005 FILLER_0_2_85
*1006 FILLER_0_2_97
*1007 FILLER_0_30_109
*1008 FILLER_0_30_121
*1009 FILLER_0_30_133
*1010 FILLER_0_30_139
*1011 FILLER_0_30_141
*1012 FILLER_0_30_15
*1013 FILLER_0_30_153
*1014 FILLER_0_30_165
*1015 FILLER_0_30_177
*1016 FILLER_0_30_189
*1017 FILLER_0_30_195
*1018 FILLER_0_30_197
*1019 FILLER_0_30_209
*1020 FILLER_0_30_221
*1021 FILLER_0_30_233
*1022 FILLER_0_30_245
*1023 FILLER_0_30_251
*1024 FILLER_0_30_253
*1025 FILLER_0_30_265
*1026 FILLER_0_30_27
*1027 FILLER_0_30_277
*1028 FILLER_0_30_289
*1029 FILLER_0_30_29
*1030 FILLER_0_30_3
*1031 FILLER_0_30_301
*1032 FILLER_0_30_307
*1033 FILLER_0_30_309
*1034 FILLER_0_30_321
*1035 FILLER_0_30_333
*1036 FILLER_0_30_345
*1037 FILLER_0_30_41
*1038 FILLER_0_30_53
*1039 FILLER_0_30_65
*1040 FILLER_0_30_77
*1041 FILLER_0_30_83
*1042 FILLER_0_30_85
*1043 FILLER_0_30_97
*1044 FILLER_0_31_105
*1045 FILLER_0_31_111
*1046 FILLER_0_31_113
*1047 FILLER_0_31_125
*1048 FILLER_0_31_137
*1049 FILLER_0_31_149
*1050 FILLER_0_31_15
*1051 FILLER_0_31_161
*1052 FILLER_0_31_167
*1053 FILLER_0_31_169
*1054 FILLER_0_31_181
*1055 FILLER_0_31_193
*1056 FILLER_0_31_205
*1057 FILLER_0_31_217
*1058 FILLER_0_31_231
*1059 FILLER_0_31_243
*1060 FILLER_0_31_250
*1061 FILLER_0_31_258
*1062 FILLER_0_31_27
*1063 FILLER_0_31_271
*1064 FILLER_0_31_279
*1065 FILLER_0_31_287
*1066 FILLER_0_31_299
*1067 FILLER_0_31_3
*1068 FILLER_0_31_311
*1069 FILLER_0_31_323
*1070 FILLER_0_31_335
*1071 FILLER_0_31_337
*1072 FILLER_0_31_349
*1073 FILLER_0_31_39
*1074 FILLER_0_31_51
*1075 FILLER_0_31_55
*1076 FILLER_0_31_57
*1077 FILLER_0_31_69
*1078 FILLER_0_31_81
*1079 FILLER_0_31_93
*1080 FILLER_0_32_109
*1081 FILLER_0_32_121
*1082 FILLER_0_32_133
*1083 FILLER_0_32_139
*1084 FILLER_0_32_141
*1085 FILLER_0_32_15
*1086 FILLER_0_32_153
*1087 FILLER_0_32_165
*1088 FILLER_0_32_177
*1089 FILLER_0_32_189
*1090 FILLER_0_32_193
*1091 FILLER_0_32_197
*1092 FILLER_0_32_203
*1093 FILLER_0_32_211
*1094 FILLER_0_32_223
*1095 FILLER_0_32_235
*1096 FILLER_0_32_241
*1097 FILLER_0_32_247
*1098 FILLER_0_32_258
*1099 FILLER_0_32_27
*1100 FILLER_0_32_274
*1101 FILLER_0_32_29
*1102 FILLER_0_32_297
*1103 FILLER_0_32_3
*1104 FILLER_0_32_305
*1105 FILLER_0_32_319
*1106 FILLER_0_32_331
*1107 FILLER_0_32_343
*1108 FILLER_0_32_41
*1109 FILLER_0_32_53
*1110 FILLER_0_32_65
*1111 FILLER_0_32_77
*1112 FILLER_0_32_83
*1113 FILLER_0_32_85
*1114 FILLER_0_32_97
*1115 FILLER_0_33_105
*1116 FILLER_0_33_111
*1117 FILLER_0_33_113
*1118 FILLER_0_33_125
*1119 FILLER_0_33_137
*1120 FILLER_0_33_149
*1121 FILLER_0_33_15
*1122 FILLER_0_33_161
*1123 FILLER_0_33_167
*1124 FILLER_0_33_176
*1125 FILLER_0_33_196
*1126 FILLER_0_33_201
*1127 FILLER_0_33_213
*1128 FILLER_0_33_221
*1129 FILLER_0_33_225
*1130 FILLER_0_33_237
*1131 FILLER_0_33_247
*1132 FILLER_0_33_255
*1133 FILLER_0_33_266
*1134 FILLER_0_33_27
*1135 FILLER_0_33_278
*1136 FILLER_0_33_281
*1137 FILLER_0_33_287
*1138 FILLER_0_33_295
*1139 FILLER_0_33_3
*1140 FILLER_0_33_300
*1141 FILLER_0_33_304
*1142 FILLER_0_33_310
*1143 FILLER_0_33_322
*1144 FILLER_0_33_334
*1145 FILLER_0_33_337
*1146 FILLER_0_33_349
*1147 FILLER_0_33_39
*1148 FILLER_0_33_51
*1149 FILLER_0_33_55
*1150 FILLER_0_33_57
*1151 FILLER_0_33_69
*1152 FILLER_0_33_81
*1153 FILLER_0_33_93
*1154 FILLER_0_34_109
*1155 FILLER_0_34_121
*1156 FILLER_0_34_133
*1157 FILLER_0_34_139
*1158 FILLER_0_34_141
*1159 FILLER_0_34_15
*1160 FILLER_0_34_153
*1161 FILLER_0_34_165
*1162 FILLER_0_34_169
*1163 FILLER_0_34_186
*1164 FILLER_0_34_194
*1165 FILLER_0_34_197
*1166 FILLER_0_34_205
*1167 FILLER_0_34_211
*1168 FILLER_0_34_221
*1169 FILLER_0_34_230
*1170 FILLER_0_34_244
*1171 FILLER_0_34_253
*1172 FILLER_0_34_267
*1173 FILLER_0_34_27
*1174 FILLER_0_34_29
*1175 FILLER_0_34_293
*1176 FILLER_0_34_3
*1177 FILLER_0_34_303
*1178 FILLER_0_34_307
*1179 FILLER_0_34_316
*1180 FILLER_0_34_328
*1181 FILLER_0_34_340
*1182 FILLER_0_34_348
*1183 FILLER_0_34_41
*1184 FILLER_0_34_53
*1185 FILLER_0_34_65
*1186 FILLER_0_34_77
*1187 FILLER_0_34_83
*1188 FILLER_0_34_85
*1189 FILLER_0_34_97
*1190 FILLER_0_35_105
*1191 FILLER_0_35_111
*1192 FILLER_0_35_113
*1193 FILLER_0_35_125
*1194 FILLER_0_35_137
*1195 FILLER_0_35_149
*1196 FILLER_0_35_15
*1197 FILLER_0_35_161
*1198 FILLER_0_35_167
*1199 FILLER_0_35_169
*1200 FILLER_0_35_186
*1201 FILLER_0_35_206
*1202 FILLER_0_35_212
*1203 FILLER_0_35_220
*1204 FILLER_0_35_225
*1205 FILLER_0_35_233
*1206 FILLER_0_35_242
*1207 FILLER_0_35_246
*1208 FILLER_0_35_250
*1209 FILLER_0_35_262
*1210 FILLER_0_35_27
*1211 FILLER_0_35_274
*1212 FILLER_0_35_285
*1213 FILLER_0_35_293
*1214 FILLER_0_35_3
*1215 FILLER_0_35_303
*1216 FILLER_0_35_323
*1217 FILLER_0_35_335
*1218 FILLER_0_35_337
*1219 FILLER_0_35_349
*1220 FILLER_0_35_39
*1221 FILLER_0_35_51
*1222 FILLER_0_35_55
*1223 FILLER_0_35_57
*1224 FILLER_0_35_69
*1225 FILLER_0_35_81
*1226 FILLER_0_35_93
*1227 FILLER_0_36_109
*1228 FILLER_0_36_121
*1229 FILLER_0_36_133
*1230 FILLER_0_36_139
*1231 FILLER_0_36_141
*1232 FILLER_0_36_15
*1233 FILLER_0_36_153
*1234 FILLER_0_36_165
*1235 FILLER_0_36_188
*1236 FILLER_0_36_197
*1237 FILLER_0_36_205
*1238 FILLER_0_36_217
*1239 FILLER_0_36_232
*1240 FILLER_0_36_244
*1241 FILLER_0_36_261
*1242 FILLER_0_36_268
*1243 FILLER_0_36_27
*1244 FILLER_0_36_276
*1245 FILLER_0_36_29
*1246 FILLER_0_36_297
*1247 FILLER_0_36_3
*1248 FILLER_0_36_305
*1249 FILLER_0_36_315
*1250 FILLER_0_36_327
*1251 FILLER_0_36_339
*1252 FILLER_0_36_41
*1253 FILLER_0_36_53
*1254 FILLER_0_36_65
*1255 FILLER_0_36_77
*1256 FILLER_0_36_83
*1257 FILLER_0_36_85
*1258 FILLER_0_36_97
*1259 FILLER_0_37_105
*1260 FILLER_0_37_111
*1261 FILLER_0_37_113
*1262 FILLER_0_37_125
*1263 FILLER_0_37_137
*1264 FILLER_0_37_149
*1265 FILLER_0_37_15
*1266 FILLER_0_37_161
*1267 FILLER_0_37_167
*1268 FILLER_0_37_169
*1269 FILLER_0_37_181
*1270 FILLER_0_37_213
*1271 FILLER_0_37_219
*1272 FILLER_0_37_223
*1273 FILLER_0_37_225
*1274 FILLER_0_37_27
*1275 FILLER_0_37_272
*1276 FILLER_0_37_286
*1277 FILLER_0_37_3
*1278 FILLER_0_37_327
*1279 FILLER_0_37_335
*1280 FILLER_0_37_337
*1281 FILLER_0_37_349
*1282 FILLER_0_37_39
*1283 FILLER_0_37_51
*1284 FILLER_0_37_55
*1285 FILLER_0_37_57
*1286 FILLER_0_37_69
*1287 FILLER_0_37_81
*1288 FILLER_0_37_93
*1289 FILLER_0_38_102
*1290 FILLER_0_38_106
*1291 FILLER_0_38_110
*1292 FILLER_0_38_113
*1293 FILLER_0_38_118
*1294 FILLER_0_38_122
*1295 FILLER_0_38_126
*1296 FILLER_0_38_130
*1297 FILLER_0_38_134
*1298 FILLER_0_38_14
*1299 FILLER_0_38_144
*1300 FILLER_0_38_156
*1301 FILLER_0_38_169
*1302 FILLER_0_38_18
*1303 FILLER_0_38_181
*1304 FILLER_0_38_195
*1305 FILLER_0_38_206
*1306 FILLER_0_38_22
*1307 FILLER_0_38_229
*1308 FILLER_0_38_241
*1309 FILLER_0_38_246
*1310 FILLER_0_38_253
*1311 FILLER_0_38_260
*1312 FILLER_0_38_273
*1313 FILLER_0_38_281
*1314 FILLER_0_38_290
*1315 FILLER_0_38_3
*1316 FILLER_0_38_307
*1317 FILLER_0_38_32
*1318 FILLER_0_38_322
*1319 FILLER_0_38_329
*1320 FILLER_0_38_335
*1321 FILLER_0_38_337
*1322 FILLER_0_38_349
*1323 FILLER_0_38_38
*1324 FILLER_0_38_42
*1325 FILLER_0_38_46
*1326 FILLER_0_38_50
*1327 FILLER_0_38_54
*1328 FILLER_0_38_57
*1329 FILLER_0_38_62
*1330 FILLER_0_38_66
*1331 FILLER_0_38_70
*1332 FILLER_0_38_74
*1333 FILLER_0_38_78
*1334 FILLER_0_38_88
*1335 FILLER_0_38_94
*1336 FILLER_0_38_98
*1337 FILLER_0_3_105
*1338 FILLER_0_3_111
*1339 FILLER_0_3_113
*1340 FILLER_0_3_125
*1341 FILLER_0_3_137
*1342 FILLER_0_3_149
*1343 FILLER_0_3_15
*1344 FILLER_0_3_161
*1345 FILLER_0_3_167
*1346 FILLER_0_3_169
*1347 FILLER_0_3_181
*1348 FILLER_0_3_193
*1349 FILLER_0_3_205
*1350 FILLER_0_3_217
*1351 FILLER_0_3_223
*1352 FILLER_0_3_225
*1353 FILLER_0_3_237
*1354 FILLER_0_3_249
*1355 FILLER_0_3_261
*1356 FILLER_0_3_27
*1357 FILLER_0_3_273
*1358 FILLER_0_3_279
*1359 FILLER_0_3_281
*1360 FILLER_0_3_293
*1361 FILLER_0_3_3
*1362 FILLER_0_3_305
*1363 FILLER_0_3_317
*1364 FILLER_0_3_329
*1365 FILLER_0_3_335
*1366 FILLER_0_3_337
*1367 FILLER_0_3_349
*1368 FILLER_0_3_39
*1369 FILLER_0_3_51
*1370 FILLER_0_3_55
*1371 FILLER_0_3_57
*1372 FILLER_0_3_69
*1373 FILLER_0_3_81
*1374 FILLER_0_3_93
*1375 FILLER_0_4_109
*1376 FILLER_0_4_121
*1377 FILLER_0_4_133
*1378 FILLER_0_4_139
*1379 FILLER_0_4_141
*1380 FILLER_0_4_15
*1381 FILLER_0_4_153
*1382 FILLER_0_4_165
*1383 FILLER_0_4_177
*1384 FILLER_0_4_189
*1385 FILLER_0_4_195
*1386 FILLER_0_4_197
*1387 FILLER_0_4_209
*1388 FILLER_0_4_221
*1389 FILLER_0_4_233
*1390 FILLER_0_4_245
*1391 FILLER_0_4_251
*1392 FILLER_0_4_253
*1393 FILLER_0_4_265
*1394 FILLER_0_4_27
*1395 FILLER_0_4_277
*1396 FILLER_0_4_289
*1397 FILLER_0_4_29
*1398 FILLER_0_4_3
*1399 FILLER_0_4_301
*1400 FILLER_0_4_307
*1401 FILLER_0_4_309
*1402 FILLER_0_4_321
*1403 FILLER_0_4_333
*1404 FILLER_0_4_345
*1405 FILLER_0_4_41
*1406 FILLER_0_4_53
*1407 FILLER_0_4_65
*1408 FILLER_0_4_77
*1409 FILLER_0_4_83
*1410 FILLER_0_4_85
*1411 FILLER_0_4_97
*1412 FILLER_0_5_105
*1413 FILLER_0_5_111
*1414 FILLER_0_5_113
*1415 FILLER_0_5_125
*1416 FILLER_0_5_137
*1417 FILLER_0_5_149
*1418 FILLER_0_5_15
*1419 FILLER_0_5_161
*1420 FILLER_0_5_167
*1421 FILLER_0_5_169
*1422 FILLER_0_5_181
*1423 FILLER_0_5_193
*1424 FILLER_0_5_205
*1425 FILLER_0_5_217
*1426 FILLER_0_5_223
*1427 FILLER_0_5_225
*1428 FILLER_0_5_237
*1429 FILLER_0_5_249
*1430 FILLER_0_5_261
*1431 FILLER_0_5_27
*1432 FILLER_0_5_273
*1433 FILLER_0_5_279
*1434 FILLER_0_5_281
*1435 FILLER_0_5_293
*1436 FILLER_0_5_3
*1437 FILLER_0_5_305
*1438 FILLER_0_5_317
*1439 FILLER_0_5_329
*1440 FILLER_0_5_335
*1441 FILLER_0_5_337
*1442 FILLER_0_5_349
*1443 FILLER_0_5_39
*1444 FILLER_0_5_51
*1445 FILLER_0_5_55
*1446 FILLER_0_5_57
*1447 FILLER_0_5_69
*1448 FILLER_0_5_81
*1449 FILLER_0_5_93
*1450 FILLER_0_6_109
*1451 FILLER_0_6_121
*1452 FILLER_0_6_133
*1453 FILLER_0_6_139
*1454 FILLER_0_6_141
*1455 FILLER_0_6_15
*1456 FILLER_0_6_153
*1457 FILLER_0_6_165
*1458 FILLER_0_6_177
*1459 FILLER_0_6_189
*1460 FILLER_0_6_195
*1461 FILLER_0_6_197
*1462 FILLER_0_6_209
*1463 FILLER_0_6_221
*1464 FILLER_0_6_233
*1465 FILLER_0_6_245
*1466 FILLER_0_6_251
*1467 FILLER_0_6_253
*1468 FILLER_0_6_265
*1469 FILLER_0_6_27
*1470 FILLER_0_6_277
*1471 FILLER_0_6_289
*1472 FILLER_0_6_29
*1473 FILLER_0_6_3
*1474 FILLER_0_6_301
*1475 FILLER_0_6_307
*1476 FILLER_0_6_309
*1477 FILLER_0_6_321
*1478 FILLER_0_6_333
*1479 FILLER_0_6_345
*1480 FILLER_0_6_41
*1481 FILLER_0_6_53
*1482 FILLER_0_6_65
*1483 FILLER_0_6_77
*1484 FILLER_0_6_83
*1485 FILLER_0_6_85
*1486 FILLER_0_6_97
*1487 FILLER_0_7_105
*1488 FILLER_0_7_111
*1489 FILLER_0_7_113
*1490 FILLER_0_7_125
*1491 FILLER_0_7_137
*1492 FILLER_0_7_149
*1493 FILLER_0_7_15
*1494 FILLER_0_7_161