*SPEF "ieee 1481-1999"
*DESIGN "tt_um_rejunity_vga_logo"
*DATE "10:13:42 Monday June 17, 2024"
*VENDOR "The OpenROAD Project"
*PROGRAM "OpenROAD"
*VERSION "da0053d7b0014ab9c87ea148875ff6c2a0f9b658"
*DESIGN_FLOW "NAME_SCOPE LOCAL" "PIN_CAP NONE"
*DIVIDER /
*DELIMITER :
*BUS_DELIMITER []
*T_UNIT 1 NS
*C_UNIT 1 PF
*R_UNIT 1 OHM
*L_UNIT 1 HENRY

*NAME_MAP
*3 clk
*4 ena
*5 rst_n
*6 ui_in[0]
*7 ui_in[1]
*8 ui_in[2]
*9 ui_in[3]
*10 ui_in[4]
*11 ui_in[5]
*12 ui_in[6]
*13 ui_in[7]
*14 uio_in[0]
*15 uio_in[1]
*16 uio_in[2]
*17 uio_in[3]
*18 uio_in[4]
*19 uio_in[5]
*20 uio_in[6]
*21 uio_in[7]
*22 net4
*23 net5
*24 net6
*25 net7
*26 net8
*27 net9
*28 net10
*29 net11
*30 net12
*31 net13
*32 net14
*33 net15
*34 net16
*35 net17
*36 net18
*37 net19
*38 uo_out[0]
*39 uo_out[1]
*40 uo_out[2]
*41 uo_out[3]
*42 uo_out[4]
*43 uo_out[5]
*44 uo_out[6]
*45 uo_out[7]
*46 _0000_
*47 _0001_
*48 _0002_
*49 _0003_
*50 _0004_
*51 _0005_
*52 _0006_
*53 _0007_
*54 _0008_
*55 _0009_
*56 _0010_
*57 _0011_
*58 _0012_
*59 _0013_
*60 _0014_
*61 _0015_
*62 _0016_
*63 _0017_
*64 _0018_
*65 _0019_
*66 _0020_
*67 _0021_
*68 _0022_
*69 _0023_
*70 _0024_
*71 _0025_
*72 _0026_
*73 _0027_
*74 _0028_
*75 _0029_
*76 _0030_
*77 _0031_
*78 _0032_
*79 _0033_
*80 _0034_
*81 _0035_
*82 _0036_
*83 _0037_
*84 _0038_
*85 _0039_
*86 _0040_
*87 _0041_
*88 _0042_
*89 _0043_
*90 _0044_
*91 _0045_
*92 _0046_
*93 _0047_
*94 _0048_
*95 _0049_
*96 _0050_
*97 _0051_
*98 _0052_
*99 _0053_
*100 _0054_
*101 _0055_
*102 _0056_
*103 _0057_
*104 _0058_
*105 _0059_
*106 _0060_
*107 _0061_
*108 _0062_
*109 _0063_
*110 _0064_
*111 _0065_
*112 _0066_
*113 _0067_
*114 _0068_
*115 _0069_
*116 _0070_
*117 _0071_
*118 _0072_
*119 _0073_
*120 _0074_
*121 _0075_
*122 _0076_
*123 _0077_
*124 _0078_
*125 _0079_
*126 _0080_
*127 _0081_
*128 _0082_
*129 _0083_
*130 _0084_
*131 _0085_
*132 _0086_
*133 _0087_
*134 _0088_
*135 _0089_
*136 _0090_
*137 _0091_
*138 _0092_
*139 _0093_
*140 _0094_
*141 _0095_
*142 _0096_
*143 _0097_
*144 _0098_
*145 _0099_
*146 _0100_
*147 _0101_
*148 _0102_
*149 _0103_
*150 _0104_
*151 _0105_
*152 _0106_
*153 _0107_
*154 _0108_
*155 _0109_
*156 _0110_
*157 _0111_
*158 _0112_
*159 _0113_
*160 _0114_
*161 _0115_
*162 _0116_
*163 _0117_
*164 _0118_
*165 _0119_
*166 _0120_
*167 _0121_
*168 _0122_
*169 _0123_
*170 _0124_
*171 _0125_
*172 _0126_
*173 _0127_
*174 _0128_
*175 _0129_
*176 _0130_
*177 _0131_
*178 _0132_
*179 _0133_
*180 _0134_
*181 _0135_
*182 _0136_
*183 _0137_
*184 _0138_
*185 _0139_
*186 _0140_
*187 _0141_
*188 _0142_
*189 _0143_
*190 _0144_
*191 _0145_
*192 _0146_
*193 _0147_
*194 _0148_
*195 _0149_
*196 _0150_
*197 _0151_
*198 _0152_
*199 _0153_
*200 _0154_
*201 _0155_
*202 _0156_
*203 _0157_
*204 _0158_
*205 _0159_
*206 _0160_
*207 _0161_
*208 _0162_
*209 _0163_
*210 _0164_
*211 _0165_
*212 _0166_
*213 _0167_
*214 _0168_
*215 _0169_
*216 _0170_
*217 _0171_
*218 _0172_
*219 _0173_
*220 _0174_
*221 _0175_
*222 _0176_
*223 _0177_
*224 _0178_
*225 _0179_
*226 _0180_
*227 _0181_
*228 _0182_
*229 _0183_
*230 _0184_
*231 _0185_
*232 _0186_
*233 _0187_
*234 _0188_
*235 _0189_
*236 _0190_
*237 _0191_
*238 _0192_
*239 _0193_
*240 _0194_
*241 _0195_
*242 _0196_
*243 _0197_
*244 _0198_
*245 _0199_
*246 _0200_
*247 _0201_
*248 _0202_
*249 _0203_
*250 _0204_
*251 _0205_
*252 _0206_
*253 _0207_
*254 _0208_
*255 _0209_
*256 _0210_
*257 _0211_
*258 _0212_
*259 _0213_
*260 _0214_
*261 _0215_
*262 _0216_
*263 _0217_
*264 _0218_
*265 _0219_
*266 _0220_
*267 _0221_
*268 _0222_
*269 _0223_
*270 _0224_
*271 _0225_
*272 _0226_
*273 _0227_
*274 _0228_
*275 _0229_
*276 _0230_
*277 _0231_
*278 _0232_
*279 _0233_
*280 _0234_
*281 _0235_
*282 _0236_
*283 _0237_
*284 _0238_
*285 _0239_
*286 _0240_
*287 _0241_
*288 _0242_
*289 _0243_
*290 _0244_
*291 _0245_
*292 _0246_
*293 _0247_
*294 _0248_
*295 _0249_
*296 _0250_
*297 _0251_
*298 _0252_
*299 _0253_
*300 _0254_
*301 _0255_
*302 _0256_
*303 _0257_
*304 _0258_
*305 _0259_
*306 _0260_
*307 _0261_
*308 _0262_
*309 _0263_
*310 _0264_
*311 _0265_
*312 _0266_
*313 _0267_
*314 _0268_
*315 _0269_
*316 _0270_
*317 _0271_
*318 _0272_
*319 _0273_
*320 _0274_
*321 _0275_
*322 _0276_
*323 _0277_
*324 _0278_
*325 _0279_
*326 _0280_
*327 _0281_
*328 _0282_
*329 _0283_
*330 _0284_
*331 _0285_
*332 _0286_
*333 _0287_
*334 _0288_
*335 _0289_
*336 _0290_
*337 _0291_
*338 _0292_
*339 _0293_
*340 _0294_
*341 _0295_
*342 _0296_
*343 _0297_
*344 _0298_
*345 _0299_
*346 _0300_
*347 _0301_
*348 _0302_
*349 _0303_
*350 _0304_
*351 _0305_
*352 _0306_
*353 _0307_
*354 _0308_
*355 _0309_
*356 _0310_
*357 _0311_
*358 _0312_
*359 _0313_
*360 _0314_
*361 _0315_
*362 _0316_
*363 _0317_
*364 _0318_
*365 _0319_
*366 _0320_
*367 _0321_
*368 _0322_
*369 _0323_
*370 _0324_
*371 _0325_
*372 _0326_
*373 _0327_
*374 _0328_
*375 _0329_
*376 _0330_
*377 _0331_
*378 _0332_
*379 _0333_
*380 _0334_
*381 _0335_
*382 _0336_
*383 _0337_
*384 _0338_
*385 _0339_
*386 _0340_
*387 _0341_
*388 _0342_
*389 _0343_
*390 _0344_
*391 _0345_
*392 _0346_
*393 _0347_
*394 _0348_
*395 _0349_
*396 _0350_
*397 _0351_
*398 _0352_
*399 _0353_
*400 _0354_
*401 _0355_
*402 _0356_
*403 _0357_
*404 _0358_
*405 _0359_
*406 _0360_
*407 _0361_
*408 _0362_
*409 _0363_
*410 _0364_
*411 _0365_
*412 _0366_
*413 _0367_
*414 _0368_
*415 _0369_
*416 _0370_
*417 _0371_
*418 _0372_
*419 _0373_
*420 _0374_
*421 _0375_
*422 _0376_
*423 _0377_
*424 _0378_
*425 _0379_
*426 _0380_
*427 _0381_
*428 _0382_
*429 _0383_
*430 _0384_
*431 _0385_
*432 _0386_
*433 _0387_
*434 _0388_
*435 _0389_
*436 _0390_
*437 _0391_
*438 _0392_
*439 _0393_
*440 _0394_
*441 _0395_
*442 _0396_
*443 _0397_
*444 _0398_
*445 _0399_
*446 _0400_
*447 _0401_
*448 _0402_
*449 _0403_
*450 _0404_
*451 _0405_
*452 _0406_
*453 _0407_
*454 _0408_
*455 _0409_
*456 _0410_
*457 _0411_
*458 _0412_
*459 _0413_
*460 _0414_
*461 _0415_
*462 _0416_
*463 _0417_
*464 _0418_
*465 _0419_
*466 _0420_
*467 _0421_
*468 _0422_
*469 _0423_
*470 _0424_
*471 _0425_
*472 _0426_
*473 _0427_
*474 _0428_
*475 _0429_
*476 _0430_
*477 _0431_
*478 _0432_
*479 _0433_
*480 _0434_
*481 _0435_
*482 _0436_
*483 _0437_
*484 _0438_
*485 _0439_
*486 _0440_
*487 _0441_
*488 _0442_
*489 _0443_
*490 _0444_
*491 _0445_
*492 _0446_
*493 _0447_
*494 _0448_
*495 _0449_
*496 _0450_
*497 _0451_
*498 _0452_
*499 _0453_
*500 _0454_
*501 _0455_
*502 _0456_
*503 _0457_
*504 _0458_
*505 _0459_
*506 _0460_
*507 _0461_
*508 _0462_
*509 _0463_
*510 _0464_
*511 _0465_
*512 _0466_
*513 _0467_
*514 _0468_
*515 _0469_
*516 _0470_
*517 _0471_
*518 _0472_
*519 _0473_
*520 _0474_
*521 _0475_
*522 _0476_
*523 _0477_
*524 _0478_
*525 _0479_
*526 _0480_
*527 _0481_
*528 _0482_
*529 _0483_
*530 _0484_
*531 _0485_
*532 _0486_
*533 _0487_
*534 _0488_
*535 _0489_
*536 _0490_
*537 _0491_
*538 _0492_
*539 _0493_
*540 _0494_
*541 _0495_
*542 _0496_
*543 _0497_
*544 _0498_
*545 _0499_
*546 _0500_
*547 _0501_
*548 _0502_
*549 _0503_
*550 _0504_
*551 _0505_
*552 _0506_
*553 _0507_
*554 _0508_
*555 _0509_
*556 _0510_
*557 _0511_
*558 _0512_
*559 _0513_
*560 _0514_
*561 _0515_
*562 _0516_
*563 _0517_
*564 _0518_
*565 _0519_
*566 _0520_
*567 _0521_
*568 _0522_
*569 _0523_
*570 _0524_
*571 _0525_
*572 _0526_
*573 _0527_
*574 _0528_
*575 _0529_
*576 _0530_
*577 _0531_
*578 _0532_
*579 _0533_
*580 _0534_
*581 _0535_
*582 _0536_
*583 _0537_
*584 _0538_
*585 _0539_
*586 _0540_
*587 _0541_
*588 _0542_
*589 _0543_
*590 _0544_
*591 _0545_
*592 _0546_
*593 _0547_
*594 _0548_
*595 _0549_
*596 _0550_
*597 _0551_
*598 _0552_
*599 _0553_
*600 _0554_
*601 _0555_
*602 _0556_
*603 _0557_
*604 _0558_
*605 _0559_
*606 _0560_
*607 _0561_
*608 _0562_
*609 _0563_
*610 _0564_
*611 _0565_
*612 _0566_
*613 _0567_
*614 _0568_
*615 _0569_
*616 _0570_
*617 _0571_
*618 _0572_
*619 _0573_
*620 _0574_
*621 _0575_
*622 _0576_
*623 _0577_
*624 _0578_
*625 _0579_
*626 _0580_
*627 _0581_
*628 _0582_
*629 _0583_
*630 _0584_
*631 _0585_
*632 _0586_
*633 _0587_
*634 _0588_
*635 _0589_
*636 _0590_
*637 _0591_
*638 _0592_
*639 _0593_
*640 _0594_
*641 _0595_
*642 _0596_
*643 _0597_
*644 _0598_
*645 _0599_
*646 _0600_
*647 _0601_
*648 _0602_
*649 _0603_
*650 _0604_
*651 _0605_
*652 _0606_
*653 _0607_
*654 _0608_
*655 _0609_
*656 _0610_
*657 _0611_
*658 _0612_
*659 _0613_
*660 _0614_
*661 _0615_
*662 _0616_
*663 _0617_
*664 _0618_
*665 _0619_
*666 _0620_
*667 _0621_
*668 _0622_
*669 _0623_
*670 _0624_
*671 _0625_
*672 _0626_
*673 _0627_
*674 _0628_
*675 _0629_
*676 _0630_
*677 _0631_
*678 _0632_
*679 _0633_
*680 _0634_
*681 _0635_
*682 _0636_
*683 _0637_
*684 _0638_
*685 _0639_
*686 _0640_
*687 _0641_
*688 _0642_
*689 _0643_
*690 _0644_
*691 _0645_
*692 _0646_
*693 _0647_
*694 _0648_
*695 _0649_
*696 _0650_
*697 _0651_
*698 _0652_
*699 _0653_
*700 _0654_
*701 _0655_
*702 _0656_
*703 _0657_
*704 _0658_
*705 _0659_
*706 _0660_
*707 _0661_
*708 _0662_
*709 _0663_
*710 _0664_
*711 _0665_
*712 _0666_
*713 _0667_
*714 _0668_
*715 _0669_
*716 _0670_
*717 _0671_
*718 _0672_
*719 _0673_
*720 _0674_
*721 _0675_
*722 _0676_
*723 _0677_
*724 _0678_
*725 _0679_
*726 _0680_
*727 _0681_
*728 _0682_
*729 _0683_
*730 _0684_
*731 _0685_
*732 _0686_
*733 _0687_
*734 _0688_
*735 _0689_
*736 _0690_
*737 _0691_
*738 _0692_
*739 clknet_0_clk
*740 clknet_3_0__leaf_clk
*741 clknet_3_1__leaf_clk
*742 clknet_3_2__leaf_clk
*743 clknet_3_3__leaf_clk
*744 clknet_3_4__leaf_clk
*745 clknet_3_5__leaf_clk
*746 clknet_3_6__leaf_clk
*747 clknet_3_7__leaf_clk
*748 counter\[0\]
*749 counter\[1\]
*750 counter\[2\]
*751 counter\[3\]
*752 counter\[4\]
*753 counter\[5\]
*754 grad1\.acc\[0\]
*755 grad1\.acc\[1\]
*756 grad1\.acc\[2\]
*757 grad1\.acc\[3\]
*758 grad1\.acc\[4\]
*759 grad1\.acc\[5\]
*760 grad1\.acc\[6\]
*761 grad1\.acc\[7\]
*762 grad1\.acc\[8\]
*763 grad1\.feedback
*764 grad1\.lfsr\[0\]
*765 grad1\.lfsr\[10\]
*766 grad1\.lfsr\[11\]
*767 grad1\.lfsr\[12\]
*768 grad1\.lfsr\[13\]
*769 grad1\.lfsr\[14\]
*770 grad1\.lfsr\[15\]
*771 grad1\.lfsr\[16\]
*772 grad1\.lfsr\[17\]
*773 grad1\.lfsr\[18\]
*774 grad1\.lfsr\[19\]
*775 grad1\.lfsr\[1\]
*776 grad1\.lfsr\[2\]
*777 grad1\.lfsr\[3\]
*778 grad1\.lfsr\[4\]
*779 grad1\.lfsr\[5\]
*780 grad1\.lfsr\[6\]
*781 grad1\.lfsr\[7\]
*782 grad1\.lfsr\[8\]
*783 grad1\.lfsr\[9\]
*784 hvsync_gen\.hpos\[0\]
*785 hvsync_gen\.hpos\[1\]
*786 hvsync_gen\.hpos\[2\]
*787 hvsync_gen\.hpos\[3\]
*788 hvsync_gen\.hpos\[4\]
*789 hvsync_gen\.hpos\[5\]
*790 hvsync_gen\.hpos\[6\]
*791 hvsync_gen\.hpos\[7\]
*792 hvsync_gen\.hpos\[8\]
*793 hvsync_gen\.hpos\[9\]
*794 hvsync_gen\.hsync
*795 hvsync_gen\.vpos\[0\]
*796 hvsync_gen\.vpos\[1\]
*797 hvsync_gen\.vpos\[2\]
*798 hvsync_gen\.vpos\[3\]
*799 hvsync_gen\.vpos\[4\]
*800 hvsync_gen\.vpos\[5\]
*801 hvsync_gen\.vpos\[6\]
*802 hvsync_gen\.vpos\[7\]
*803 hvsync_gen\.vpos\[8\]
*804 hvsync_gen\.vpos\[9\]
*805 hvsync_gen\.vsync
*806 net1
*807 net2
*808 net20
*809 net21
*810 net22
*811 net23
*812 net24
*813 net25
*814 net26
*815 net27
*816 net28
*817 net29
*818 net3
*819 net30
*820 net31
*821 net32
*822 net33
*823 net34
*824 net35
*825 net36
*826 net37
*827 net38
*828 net39
*829 net40
*830 net41
*831 net42
*832 net43
*833 net44
*834 net45
*835 net46
*836 net47
*837 net48
*838 r\[0\]
*839 r\[10\]
*840 r\[11\]
*841 r\[12\]
*842 r\[13\]
*843 r\[14\]
*844 r\[15\]
*845 r\[16\]
*846 r\[1\]
*847 r\[2\]
*848 r\[3\]
*849 r\[4\]
*850 r\[5\]
*851 r\[6\]
*852 r\[7\]
*853 r\[8\]
*854 r\[9\]
*855 FILLER_0_0_109
*856 FILLER_0_0_113
*857 FILLER_0_0_125
*858 FILLER_0_0_137
*859 FILLER_0_0_141
*860 FILLER_0_0_15
*861 FILLER_0_0_153
*862 FILLER_0_0_165
*863 FILLER_0_0_169
*864 FILLER_0_0_181
*865 FILLER_0_0_193
*866 FILLER_0_0_197
*867 FILLER_0_0_209
*868 FILLER_0_0_221
*869 FILLER_0_0_225
*870 FILLER_0_0_237
*871 FILLER_0_0_249
*872 FILLER_0_0_253
*873 FILLER_0_0_265
*874 FILLER_0_0_27
*875 FILLER_0_0_277
*876 FILLER_0_0_281
*877 FILLER_0_0_29
*878 FILLER_0_0_293
*879 FILLER_0_0_3
*880 FILLER_0_0_305
*881 FILLER_0_0_309
*882 FILLER_0_0_321
*883 FILLER_0_0_333
*884 FILLER_0_0_41
*885 FILLER_0_0_53
*886 FILLER_0_0_57
*887 FILLER_0_0_69
*888 FILLER_0_0_81
*889 FILLER_0_0_85
*890 FILLER_0_0_97
*891 FILLER_0_10_101
*892 FILLER_0_10_115
*893 FILLER_0_10_138
*894 FILLER_0_10_147
*895 FILLER_0_10_15
*896 FILLER_0_10_170
*897 FILLER_0_10_195
*898 FILLER_0_10_197
*899 FILLER_0_10_209
*900 FILLER_0_10_215
*901 FILLER_0_10_227
*902 FILLER_0_10_245
*903 FILLER_0_10_251
*904 FILLER_0_10_253
*905 FILLER_0_10_267
*906 FILLER_0_10_27
*907 FILLER_0_10_271
*908 FILLER_0_10_288
*909 FILLER_0_10_29
*910 FILLER_0_10_3
*911 FILLER_0_10_313
*912 FILLER_0_10_329
*913 FILLER_0_10_41
*914 FILLER_0_10_53
*915 FILLER_0_10_65
*916 FILLER_0_10_77
*917 FILLER_0_10_83
*918 FILLER_0_10_85
*919 FILLER_0_10_93
*920 FILLER_0_11_122
*921 FILLER_0_11_15
*922 FILLER_0_11_155
*923 FILLER_0_11_161
*924 FILLER_0_11_167
*925 FILLER_0_11_189
*926 FILLER_0_11_195
*927 FILLER_0_11_201
*928 FILLER_0_11_218
*929 FILLER_0_11_247
*930 FILLER_0_11_258
*931 FILLER_0_11_27
*932 FILLER_0_11_276
*933 FILLER_0_11_3
*934 FILLER_0_11_320
*935 FILLER_0_11_332
*936 FILLER_0_11_39
*937 FILLER_0_11_51
*938 FILLER_0_11_55
*939 FILLER_0_11_57
*940 FILLER_0_11_69
*941 FILLER_0_11_87
*942 FILLER_0_11_95
*943 FILLER_0_12_104
*944 FILLER_0_12_117
*945 FILLER_0_12_137
*946 FILLER_0_12_141
*947 FILLER_0_12_15
*948 FILLER_0_12_178
*949 FILLER_0_12_195
*950 FILLER_0_12_197
*951 FILLER_0_12_214
*952 FILLER_0_12_220
*953 FILLER_0_12_246
*954 FILLER_0_12_253
*955 FILLER_0_12_258
*956 FILLER_0_12_266
*957 FILLER_0_12_27
*958 FILLER_0_12_280
*959 FILLER_0_12_29
*960 FILLER_0_12_3
*961 FILLER_0_12_315
*962 FILLER_0_12_326
*963 FILLER_0_12_334
*964 FILLER_0_12_41
*965 FILLER_0_12_53
*966 FILLER_0_12_65
*967 FILLER_0_12_77
*968 FILLER_0_12_83
*969 FILLER_0_12_96
*970 FILLER_0_13_110
*971 FILLER_0_13_129
*972 FILLER_0_13_137
*973 FILLER_0_13_15
*974 FILLER_0_13_156
*975 FILLER_0_13_160
*976 FILLER_0_13_166
*977 FILLER_0_13_175
*978 FILLER_0_13_213
*979 FILLER_0_13_221
*980 FILLER_0_13_225
*981 FILLER_0_13_251
*982 FILLER_0_13_255
*983 FILLER_0_13_261
*984 FILLER_0_13_27
*985 FILLER_0_13_3
*986 FILLER_0_13_317
*987 FILLER_0_13_329
*988 FILLER_0_13_39
*989 FILLER_0_13_51
*990 FILLER_0_13_55
*991 FILLER_0_13_57
*992 FILLER_0_13_69
*993 FILLER_0_13_77
*994 FILLER_0_13_98
*995 FILLER_0_14_114
*996 FILLER_0_14_131
*997 FILLER_0_14_138
*998 FILLER_0_14_15
*999 FILLER_0_14_154
*1000 FILLER_0_14_165
*1001 FILLER_0_14_173
*1002 FILLER_0_14_253
*1003 FILLER_0_14_27
*1004 FILLER_0_14_271
*1005 FILLER_0_14_279
*1006 FILLER_0_14_29
*1007 FILLER_0_14_3
*1008 FILLER_0_14_315
*1009 FILLER_0_14_327
*1010 FILLER_0_14_41
*1011 FILLER_0_14_53
*1012 FILLER_0_14_65
*1013 FILLER_0_14_82
*1014 FILLER_0_14_85
*1015 FILLER_0_14_93
*1016 FILLER_0_15_120
*1017 FILLER_0_15_132
*1018 FILLER_0_15_138
*1019 FILLER_0_15_15
*1020 FILLER_0_15_164
*1021 FILLER_0_15_169
*1022 FILLER_0_15_173
*1023 FILLER_0_15_198
*1024 FILLER_0_15_210
*1025 FILLER_0_15_214
*1026 FILLER_0_15_222
*1027 FILLER_0_15_241
*1028 FILLER_0_15_255
*1029 FILLER_0_15_259
*1030 FILLER_0_15_27
*1031 FILLER_0_15_278
*1032 FILLER_0_15_297
*1033 FILLER_0_15_3
*1034 FILLER_0_15_322
*1035 FILLER_0_15_334
*1036 FILLER_0_15_39
*1037 FILLER_0_15_51
*1038 FILLER_0_15_55
*1039 FILLER_0_15_57
*1040 FILLER_0_15_69
*1041 FILLER_0_15_77
*1042 FILLER_0_15_95
*1043 FILLER_0_16_116
*1044 FILLER_0_16_121
*1045 FILLER_0_16_129
*1046 FILLER_0_16_148
*1047 FILLER_0_16_15
*1048 FILLER_0_16_165
*1049 FILLER_0_16_171
*1050 FILLER_0_16_197
*1051 FILLER_0_16_211
*1052 FILLER_0_16_232
*1053 FILLER_0_16_253
*1054 FILLER_0_16_260
*1055 FILLER_0_16_265
*1056 FILLER_0_16_27
*1057 FILLER_0_16_272
*1058 FILLER_0_16_29
*1059 FILLER_0_16_3
*1060 FILLER_0_16_307
*1061 FILLER_0_16_309
*1062 FILLER_0_16_321
*1063 FILLER_0_16_333
*1064 FILLER_0_16_41
*1065 FILLER_0_16_53
*1066 FILLER_0_16_65
*1067 FILLER_0_16_77
*1068 FILLER_0_16_83
*1069 FILLER_0_16_93
*1070 FILLER_0_17_104
*1071 FILLER_0_17_121
*1072 FILLER_0_17_141
*1073 FILLER_0_17_15
*1074 FILLER_0_17_153
*1075 FILLER_0_17_167
*1076 FILLER_0_17_169
*1077 FILLER_0_17_190
*1078 FILLER_0_17_204
*1079 FILLER_0_17_212
*1080 FILLER_0_17_225
*1081 FILLER_0_17_245
*1082 FILLER_0_17_262
*1083 FILLER_0_17_266
*1084 FILLER_0_17_27
*1085 FILLER_0_17_276
*1086 FILLER_0_17_298
*1087 FILLER_0_17_3
*1088 FILLER_0_17_310
*1089 FILLER_0_17_322
*1090 FILLER_0_17_334
*1091 FILLER_0_17_39
*1092 FILLER_0_17_51
*1093 FILLER_0_17_55
*1094 FILLER_0_17_57
*1095 FILLER_0_17_69
*1096 FILLER_0_17_81
*1097 FILLER_0_17_89
*1098 FILLER_0_18_118
*1099 FILLER_0_18_125
*1100 FILLER_0_18_131
*1101 FILLER_0_18_138
*1102 FILLER_0_18_149
*1103 FILLER_0_18_15
*1104 FILLER_0_18_157
*1105 FILLER_0_18_165
*1106 FILLER_0_18_183
*1107 FILLER_0_18_189
*1108 FILLER_0_18_195
*1109 FILLER_0_18_208
*1110 FILLER_0_18_230
*1111 FILLER_0_18_241
*1112 FILLER_0_18_253
*1113 FILLER_0_18_258
*1114 FILLER_0_18_266
*1115 FILLER_0_18_27
*1116 FILLER_0_18_280
*1117 FILLER_0_18_285
*1118 FILLER_0_18_29
*1119 FILLER_0_18_297
*1120 FILLER_0_18_3
*1121 FILLER_0_18_302
*1122 FILLER_0_18_309
*1123 FILLER_0_18_321
*1124 FILLER_0_18_333
*1125 FILLER_0_18_41
*1126 FILLER_0_18_53
*1127 FILLER_0_18_65
*1128 FILLER_0_18_77
*1129 FILLER_0_18_83
*1130 FILLER_0_19_107
*1131 FILLER_0_19_131
*1132 FILLER_0_19_15
*1133 FILLER_0_19_160
*1134 FILLER_0_19_179
*1135 FILLER_0_19_183
*1136 FILLER_0_19_192
*1137 FILLER_0_19_198
*1138 FILLER_0_19_210
*1139 FILLER_0_19_222
*1140 FILLER_0_19_225
*1141 FILLER_0_19_252
*1142 FILLER_0_19_263
*1143 FILLER_0_19_27
*1144 FILLER_0_19_279
*1145 FILLER_0_19_3
*1146 FILLER_0_19_300
*1147 FILLER_0_19_312
*1148 FILLER_0_19_324
*1149 FILLER_0_19_332
*1150 FILLER_0_19_39
*1151 FILLER_0_19_51
*1152 FILLER_0_19_55
*1153 FILLER_0_19_57
*1154 FILLER_0_19_69
*1155 FILLER_0_19_81
*1156 FILLER_0_1_105
*1157 FILLER_0_1_111
*1158 FILLER_0_1_113
*1159 FILLER_0_1_125
*1160 FILLER_0_1_137
*1161 FILLER_0_1_149
*1162 FILLER_0_1_15
*1163 FILLER_0_1_161
*1164 FILLER_0_1_167
*1165 FILLER_0_1_169
*1166 FILLER_0_1_181
*1167 FILLER_0_1_193
*1168 FILLER_0_1_205
*1169 FILLER_0_1_217
*1170 FILLER_0_1_223
*1171 FILLER_0_1_225
*1172 FILLER_0_1_237
*1173 FILLER_0_1_249
*1174 FILLER_0_1_261
*1175 FILLER_0_1_27
*1176 FILLER_0_1_273
*1177 FILLER_0_1_279
*1178 FILLER_0_1_281
*1179 FILLER_0_1_293
*1180 FILLER_0_1_3
*1181 FILLER_0_1_305
*1182 FILLER_0_1_317
*1183 FILLER_0_1_329
*1184 FILLER_0_1_39
*1185 FILLER_0_1_51
*1186 FILLER_0_1_55
*1187 FILLER_0_1_57
*1188 FILLER_0_1_69
*1189 FILLER_0_1_81
*1190 FILLER_0_1_93
*1191 FILLER_0_20_113
*1192 FILLER_0_20_117
*1193 FILLER_0_20_130
*1194 FILLER_0_20_138
*1195 FILLER_0_20_141
*1196 FILLER_0_20_15
*1197 FILLER_0_20_157
*1198 FILLER_0_20_179
*1199 FILLER_0_20_194
*1200 FILLER_0_20_227
*1201 FILLER_0_20_243
*1202 FILLER_0_20_253
*1203 FILLER_0_20_27
*1204 FILLER_0_20_270
*1205 FILLER_0_20_274
*1206 FILLER_0_20_280
*1207 FILLER_0_20_29
*1208 FILLER_0_20_3
*1209 FILLER_0_20_309
*1210 FILLER_0_20_321
*1211 FILLER_0_20_333
*1212 FILLER_0_20_41
*1213 FILLER_0_20_53
*1214 FILLER_0_20_65
*1215 FILLER_0_20_83
*1216 FILLER_0_20_85
*1217 FILLER_0_21_121
*1218 FILLER_0_21_128
*1219 FILLER_0_21_137
*1220 FILLER_0_21_15
*1221 FILLER_0_21_158
*1222 FILLER_0_21_164
*1223 FILLER_0_21_178
*1224 FILLER_0_21_188
*1225 FILLER_0_21_200
*1226 FILLER_0_21_222
*1227 FILLER_0_21_225
*1228 FILLER_0_21_240
*1229 FILLER_0_21_250
*1230 FILLER_0_21_269
*1231 FILLER_0_21_27
*1232 FILLER_0_21_278
*1233 FILLER_0_21_291
*1234 FILLER_0_21_3
*1235 FILLER_0_21_309
*1236 FILLER_0_21_321
*1237 FILLER_0_21_333
*1238 FILLER_0_21_39
*1239 FILLER_0_21_51
*1240 FILLER_0_21_55
*1241 FILLER_0_21_57
*1242 FILLER_0_21_69
*1243 FILLER_0_22_101
*1244 FILLER_0_22_105
*1245 FILLER_0_22_113
*1246 FILLER_0_22_121
*1247 FILLER_0_22_129
*1248 FILLER_0_22_137
*1249 FILLER_0_22_141
*1250 FILLER_0_22_148
*1251 FILLER_0_22_15
*1252 FILLER_0_22_152
*1253 FILLER_0_22_174
*1254 FILLER_0_22_179
*1255 FILLER_0_22_185
*1256 FILLER_0_22_213
*1257 FILLER_0_22_239
*1258 FILLER_0_22_243
*1259 FILLER_0_22_27
*1260 FILLER_0_22_29
*1261 FILLER_0_22_3
*1262 FILLER_0_22_306
*1263 FILLER_0_22_309
*1264 FILLER_0_22_321
*1265 FILLER_0_22_333
*1266 FILLER_0_22_41
*1267 FILLER_0_22_53
*1268 FILLER_0_22_65
*1269 FILLER_0_22_85
*1270 FILLER_0_23_117
*1271 FILLER_0_23_124
*1272 FILLER_0_23_128
*1273 FILLER_0_23_136
*1274 FILLER_0_23_144
*1275 FILLER_0_23_15
*1276 FILLER_0_23_158
*1277 FILLER_0_23_163
*1278 FILLER_0_23_167
*1279 FILLER_0_23_169
*1280 FILLER_0_23_173
*1281 FILLER_0_23_223
*1282 FILLER_0_23_225
*1283 FILLER_0_23_229
*1284 FILLER_0_23_236
*1285 FILLER_0_23_243
*1286 FILLER_0_23_247
*1287 FILLER_0_23_256
*1288 FILLER_0_23_260
*1289 FILLER_0_23_264
*1290 FILLER_0_23_268
*1291 FILLER_0_23_27
*1292 FILLER_0_23_278
*1293 FILLER_0_23_285
*1294 FILLER_0_23_296
*1295 FILLER_0_23_3
*1296 FILLER_0_23_330
*1297 FILLER_0_23_334
*1298 FILLER_0_23_39
*1299 FILLER_0_23_51
*1300 FILLER_0_23_55
*1301 FILLER_0_23_57
*1302 FILLER_0_23_81
*1303 FILLER_0_23_91
*1304 FILLER_0_24_100
*1305 FILLER_0_24_115
*1306 FILLER_0_24_119
*1307 FILLER_0_24_141
*1308 FILLER_0_24_15
*1309 FILLER_0_24_150
*1310 FILLER_0_24_188
*1311 FILLER_0_24_197
*1312 FILLER_0_24_250
*1313 FILLER_0_24_257
*1314 FILLER_0_24_27
*1315 FILLER_0_24_279
*1316 FILLER_0_24_29
*1317 FILLER_0_24_3
*1318 FILLER_0_24_302
*1319 FILLER_0_24_309
*1320 FILLER_0_24_321
*1321 FILLER_0_24_333
*1322 FILLER_0_24_41
*1323 FILLER_0_24_61
*1324 FILLER_0_24_96
*1325 FILLER_0_25_113
*1326 FILLER_0_25_121
*1327 FILLER_0_25_133
*1328 FILLER_0_25_15
*1329 FILLER_0_25_166
*1330 FILLER_0_25_169
*1331 FILLER_0_25_179
*1332 FILLER_0_25_204
*1333 FILLER_0_25_225
*1334 FILLER_0_25_231
*1335 FILLER_0_25_245
*1336 FILLER_0_25_252
*1337 FILLER_0_25_260
*1338 FILLER_0_25_264
*1339 FILLER_0_25_27
*1340 FILLER_0_25_272
*1341 FILLER_0_25_293
*1342 FILLER_0_25_3
*1343 FILLER_0_25_305
*1344 FILLER_0_25_317
*1345 FILLER_0_25_329
*1346 FILLER_0_25_35
*1347 FILLER_0_25_52
*1348 FILLER_0_25_57
*1349 FILLER_0_25_65
*1350 FILLER_0_26_105
*1351 FILLER_0_26_117
*1352 FILLER_0_26_126
*1353 FILLER_0_26_134
*1354 FILLER_0_26_15
*1355 FILLER_0_26_155
*1356 FILLER_0_26_162
*1357 FILLER_0_26_180
*1358 FILLER_0_26_194
*1359 FILLER_0_26_202
*1360 FILLER_0_26_209
*1361 FILLER_0_26_216
*1362 FILLER_0_26_229
*1363 FILLER_0_26_243
*1364 FILLER_0_26_257
*1365 FILLER_0_26_27
*1366 FILLER_0_26_275
*1367 FILLER_0_26_29
*1368 FILLER_0_26_294
*1369 FILLER_0_26_3
*1370 FILLER_0_26_306
*1371 FILLER_0_26_309
*1372 FILLER_0_26_321
*1373 FILLER_0_26_333
*1374 FILLER_0_26_37
*1375 FILLER_0_26_50
*1376 FILLER_0_26_69
*1377 FILLER_0_27_103
*1378 FILLER_0_27_133
*1379 FILLER_0_27_15
*1380 FILLER_0_27_175
*1381 FILLER_0_27_203
*1382 FILLER_0_27_21
*1383 FILLER_0_27_222
*1384 FILLER_0_27_233
*1385 FILLER_0_27_249
*1386 FILLER_0_27_261
*1387 FILLER_0_27_269
*1388 FILLER_0_27_275
*1389 FILLER_0_27_291
*1390 FILLER_0_27_296
*1391 FILLER_0_27_3
*1392 FILLER_0_27_308
*1393 FILLER_0_27_320
*1394 FILLER_0_27_332
*1395 FILLER_0_27_53
*1396 FILLER_0_27_75
*1397 FILLER_0_27_87
*1398 FILLER_0_27_99
*1399 FILLER_0_28_121
*1400 FILLER_0_28_126
*1401 FILLER_0_28_141
*1402 FILLER_0_28_15
*1403 FILLER_0_28_154
*1404 FILLER_0_28_173
*1405 FILLER_0_28_181
*1406 FILLER_0_28_202
*1407 FILLER_0_28_208
*1408 FILLER_0_28_227
*1409 FILLER_0_28_246
*1410 FILLER_0_28_253
*1411 FILLER_0_28_261
*1412 FILLER_0_28_27
*1413 FILLER_0_28_287
*1414 FILLER_0_28_29
*1415 FILLER_0_28_293
*1416 FILLER_0_28_297
*1417 FILLER_0_28_3
*1418 FILLER_0_28_305
*1419 FILLER_0_28_309
*1420 FILLER_0_28_321
*1421 FILLER_0_28_33
*1422 FILLER_0_28_333
*1423 FILLER_0_28_66
*1424 FILLER_0_28_74
*1425 FILLER_0_28_85
*1426 FILLER_0_29_106
*1427 FILLER_0_29_132
*1428 FILLER_0_29_147
*1429 FILLER_0_29_15
*1430 FILLER_0_29_152
*1431 FILLER_0_29_162
*1432 FILLER_0_29_178
*1433 FILLER_0_29_190
*1434 FILLER_0_29_196
*1435 FILLER_0_29_221
*1436 FILLER_0_29_234
*1437 FILLER_0_29_240
*1438 FILLER_0_29_249
*1439 FILLER_0_29_258
*1440 FILLER_0_29_281
*1441 FILLER_0_29_3
*1442 FILLER_0_29_307
*1443 FILLER_0_29_319
*1444 FILLER_0_29_331
*1445 FILLER_0_2_109
*1446 FILLER_0_2_121
*1447 FILLER_0_2_133
*1448 FILLER_0_2_139
*1449 FILLER_0_2_141
*1450 FILLER_0_2_15
*1451 FILLER_0_2_153
*1452 FILLER_0_2_165
*1453 FILLER_0_2_177
*1454 FILLER_0_2_189
*1455 FILLER_0_2_195
*1456 FILLER_0_2_197
*1457 FILLER_0_2_209
*1458 FILLER_0_2_221
*1459 FILLER_0_2_233
*1460 FILLER_0_2_245
*1461 FILLER_0_2_251
*1462 FILLER_0_2_253
*1463 FILLER_0_2_265
*1464 FILLER_0_2_27
*1465 FILLER_0_2_277
*1466 FILLER_0_2_289
*1467 FILLER_0_2_29
*1468 FILLER_0_2_3
*1469 FILLER_0_2_301
*1470 FILLER_0_2_307
*1471 FILLER_0_2_309
*1472 FILLER_0_2_321
*1473 FILLER_0_2_333
*1474 FILLER_0_2_41
*1475 FILLER_0_2_53
*1476 FILLER_0_2_65
*1477 FILLER_0_2_77
*1478 FILLER_0_2_83
*1479 FILLER_0_2_85
*1480 FILLER_0_2_97
*1481 FILLER_0_30_109
*1482 FILLER_0_30_121
*1483 FILLER_0_30_132
*1484 FILLER_0_30_136
*1485 FILLER_0_30_15
*1486 FILLER_0_30_155
*1487 FILLER_0_30_176
*1488 FILLER_0_30_186
*1489 FILLER_0_30_202
*1490 FILLER_0_30_223
*1491 FILLER_0_30_243
*1492 FILLER_0_30_268
*1493 FILLER_0_30_27
*1494 FILLER_0_30_29
*1495 FILLER_0_30_3
*1496 FILLER_0_30_309
*1497 FILLER_0_30_321
*1498 FILLER_0_30_333
*1499 FILLER_0_30_47
*1500 FILLER_0_30_76
*1501 FILLER_0_30_80
*1502 FILLER_0_30_90
*1503 FILLER_0_31_113
*1504 FILLER_0_31_132
*1505 FILLER_0_31_147
*1506 FILLER_0_31_15
*1507 FILLER_0_31_167
*1508 FILLER_0_31_169
*1509 FILLER_0_31_19
*1510 FILLER_0_31_206
*1511 FILLER_0_31_212
*1512 FILLER_0_31_225
*1513 FILLER_0_31_250
*1514 FILLER_0_31_258
*1515 FILLER_0_31_275
*1516 FILLER_0_31_279
*1517 FILLER_0_31_281
*1518 FILLER_0_31_298
*1519 FILLER_0_31_3
*1520 FILLER_0_31_310
*1521 FILLER_0_31_322
*1522 FILLER_0_31_334
*1523 FILLER_0_31_36
*1524 FILLER_0_31_65
*1525 FILLER_0_31_77
*1526 FILLER_0_31_86
*1527 FILLER_0_31_97
*1528 FILLER_0_32_101
*1529 FILLER_0_32_11
*1530 FILLER_0_32_113
*1531 FILLER_0_32_135
*1532 FILLER_0_32_139
*1533 FILLER_0_32_141
*1534 FILLER_0_32_147
*1535 FILLER_0_32_156
*1536 FILLER_0_32_171
*1537 FILLER_0_32_178
*1538 FILLER_0_32_186
*1539 FILLER_0_32_192
*1540 FILLER_0_32_197
*1541 FILLER_0_32_201
*1542 FILLER_0_32_221
*1543 FILLER_0_32_233
*1544 FILLER_0_32_241
*1545 FILLER_0_32_249
*1546 FILLER_0_32_278
*1547 FILLER_0_32_282
*1548 FILLER_0_32_29
*1549 FILLER_0_32_3
*1550 FILLER_0_32_309
*1551 FILLER_0_32_321
*1552 FILLER_0_32_333
*1553 FILLER_0_32_62
*1554 FILLER_0_32_72
*1555 FILLER_0_33_11
*1556 FILLER_0_33_110
*1557 FILLER_0_33_133
*1558 FILLER_0_33_150
*1559 FILLER_0_33_158
*1560 FILLER_0_33_166
*1561 FILLER_0_33_169
*1562 FILLER_0_33_177
*1563 FILLER_0_33_191
*1564 FILLER_0_33_195
*1565 FILLER_0_33_210
*1566 FILLER_0_33_218
*1567 FILLER_0_33_232
*1568 FILLER_0_33_236
*1569 FILLER_0_33_240
*1570 FILLER_0_33_250
*1571 FILLER_0_33_273
*1572 FILLER_0_33_279
*1573 FILLER_0_33_281
*1574 FILLER_0_33_297
*1575 FILLER_0_33_3
*1576 FILLER_0_33_309
*1577 FILLER_0_33_321
*1578 FILLER_0_33_333
*1579 FILLER_0_33_37
*1580 FILLER_0_33_80
*1581 FILLER_0_34_133
*1582 FILLER_0_34_139
*1583 FILLER_0_34_148
*1584 FILLER_0_34_15
*1585 FILLER_0_34_175
*1586 FILLER_0_34_194
*1587 FILLER_0_34_197
*1588 FILLER_0_34_203
*1589 FILLER_0_34_220
*1590 FILLER_0_34_239
*1591 FILLER_0_34_250
*1592 FILLER_0_34_253
*1593 FILLER_0_34_263
*1594 FILLER_0_34_27
*1595 FILLER_0_34_282
*1596 FILLER_0_34_29
*1597 FILLER_0_34_291
*1598 FILLER_0_34_3
*1599 FILLER_0_34_309
*1600 FILLER_0_34_321
*1601 FILLER_0_34_333
*1602 FILLER_0_34_48
*1603 FILLER_0_34_82
*1604 FILLER_0_34_85
*1605 FILLER_0_35_105
*1606 FILLER_0_35_127
*1607 FILLER_0_35_15
*1608 FILLER_0_35_183
*1609 FILLER_0_35_193
*1610 FILLER_0_35_199
*1611 FILLER_0_35_211
*1612 FILLER_0_35_223
*1613 FILLER_0_35_225
*1614 FILLER_0_35_234
*1615 FILLER_0_35_240
*1616 FILLER_0_35_258
*1617 FILLER_0_35_264
*1618 FILLER_0_35_27
*1619 FILLER_0_35_272
*1620 FILLER_0_35_298
*1621 FILLER_0_35_3
*1622 FILLER_0_35_310
*1623 FILLER_0_35_322
*1624 FILLER_0_35_334
*1625 FILLER_0_35_39
*1626 FILLER_0_35_65
*1627 FILLER_0_35_69
*1628 FILLER_0_36_110
*1629 FILLER_0_36_122
*1630 FILLER_0_36_134
*1631 FILLER_0_36_141
*1632 FILLER_0_36_146
*1633 FILLER_0_36_15
*1634 FILLER_0_36_152
*1635 FILLER_0_36_197
*1636 FILLER_0_36_201
*1637 FILLER_0_36_221
*1638 FILLER_0_36_225
*1639 FILLER_0_36_239
*1640 FILLER_0_36_249
*1641 FILLER_0_36_267
*1642 FILLER_0_36_27
*1643 FILLER_0_36_279
*1644 FILLER_0_36_29
*1645 FILLER_0_36_291
*1646 FILLER_0_36_3
*1647 FILLER_0_36_303
*1648 FILLER_0_36_307
*1649 FILLER_0_36_309
*1650 FILLER_0_36_321
*1651 FILLER_0_36_333
*1652 FILLER_0_36_41
*1653 FILLER_0_36_53
*1654 FILLER_0_36_73
*1655 FILLER_0_36_81
*1656 FILLER_0_36_85
*1657 FILLER_0_36_89
*1658 FILLER_0_36_98
*1659 FILLER_0_37_105
*1660 FILLER_0_37_111
*1661 FILLER_0_37_113
*1662 FILLER_0_37_125
*1663 FILLER_0_37_137
*1664 FILLER_0_37_15
*1665 FILLER_0_37_155
*1666 FILLER_0_37_166
*1667 FILLER_0_37_195
*1668 FILLER_0_37_205
*1669 FILLER_0_37_220
*1670 FILLER_0_37_225
*1671 FILLER_0_37_237
*1672 FILLER_0_37_249
*1673 FILLER_0_37_261
*1674 FILLER_0_37_27
*1675 FILLER_0_37_273
*1676 FILLER_0_37_279
*1677 FILLER_0_37_281
*1678 FILLER_0_37_293
*1679 FILLER_0_37_3
*1680 FILLER_0_37_305
*1681 FILLER_0_37_317
*1682 FILLER_0_37_329
*1683 FILLER_0_37_39
*1684 FILLER_0_37_51
*1685 FILLER_0_37_55
*1686 FILLER_0_37_57
*1687 FILLER_0_37_69
*1688 FILLER_0_37_81
*1689 FILLER_0_37_93
*1690 FILLER_0_38_100
*1691 FILLER_0_38_106
*1692 FILLER_0_38_113
*1693 FILLER_0_38_118
*1694 FILLER_0_38_124
*1695 FILLER_0_38_130
*1696 FILLER_0_38_136
*1697 FILLER_0_38_144
*1698 FILLER_0_38_148
*1699 FILLER_0_38_15
*1700 FILLER_0_38_158
*1701 FILLER_0_38_164
*1702 FILLER_0_38_173
*1703 FILLER_0_38_182
*1704 FILLER_0_38_195
*1705 FILLER_0_38_218
*1706 FILLER_0_38_225
*1707 FILLER_0_38_237
*1708 FILLER_0_38_249
*1709 FILLER_0_38_253
*1710 FILLER_0_38_265
*1711 FILLER_0_38_27
*1712 FILLER_0_38_277
*1713 FILLER_0_38_281
*1714 FILLER_0_38_29
*1715 FILLER_0_38_293
*1716 FILLER_0_38_3
*1717 FILLER_0_38_304
*1718 FILLER_0_38_309
*1719 FILLER_0_38_321
*1720 FILLER_0_38_333
*1721 FILLER_0_38_41
*1722 FILLER_0_38_53
*1723 FILLER_0_38_57
*1724 FILLER_0_38_64
*1725 FILLER_0_38_70
*1726 FILLER_0_38_76
*1727 FILLER_0_38_82
*1728 FILLER_0_38_88
*1729 FILLER_0_38_94
*1730 FILLER_0_3_105
*1731 FILLER_0_3_111